[Format]      =  4.0
[Frequency]   =  0
[Precision]   =  1e-008
[MinAngle]    =  30
[DoSmartMesh] =  0
[Depth]       =  30
[LengthUnits] =  millimeters
[ProblemType] =  planar
[Coordinates] =  cartesian
[ACSolver]    =  0
[PrevType]    =  0
[PrevSoln]    =  "C:\Users\Inbaraj\Desktop\BuildClub-Suite\BuildClub-Backend\data\671a26a23049c44be39c0369\N1\N1_Motor\motor.ans"
[Comment]     =  "Add comments here."
[PointProps]   = 0
[BdryProps]   = 2
  <BeginBdry>
    <BdryName> = "A=0"
    <BdryType> = 0
    <A_0> = 0
    <A_1> = 0
    <A_2> = 0
    <Phi> = 0
    <c0> = 0
    <c0i> = 0
    <c1> = 0
    <c1i> = 0
    <Mu_ssd> = 0
    <Sigma_ssd> = 0
    <innerangle> = 0
    <outerangle> = 0
  <EndBdry>
  <BeginBdry>
    <BdryName> = "slidingBand"
    <BdryType> = 6
    <A_0> = 0
    <A_1> = 0
    <A_2> = 0
    <Phi> = 0
    <c0> = 0
    <c0i> = 0
    <c1> = 0
    <c1i> = 0
    <Mu_ssd> = 0
    <Sigma_ssd> = 0
    <innerangle> = 0
    <outerangle> = 0
  <EndBdry>
[BlockProps]  = 4
  <BeginBlock>
    <BlockName> = "Air"
    <Mu_x> = 1
    <Mu_y> = 1
    <H_c> = 0
    <H_cAngle> = 0
    <J_re> = 0
    <J_im> = 0
    <Sigma> = 0
    <d_lam> = 0
    <Phi_h> = 0
    <Phi_hx> = 0
    <Phi_hy> = 0
    <LamType> = 0
    <LamFill> = 1
    <NStrands> = 0
    <WireD> = 0
    <BHPoints> = 0
  <EndBlock>
  <BeginBlock>
    <BlockName> = "20 SWG"
    <Mu_x> = 1
    <Mu_y> = 1
    <H_c> = 0
    <H_cAngle> = 0
    <J_re> = 0
    <J_im> = 0
    <Sigma> = 58
    <d_lam> = 0
    <Phi_h> = 0
    <Phi_hx> = 0
    <Phi_hy> = 0
    <LamType> = 3
    <LamFill> = 1
    <NStrands> = 1
    <WireD> = 0.91439999999999999
    <BHPoints> = 0
  <EndBlock>
  <BeginBlock>
    <BlockName> = "N42"
    <Mu_x> = 1.05
    <Mu_y> = 1.05
    <H_c> = 994529
    <H_cAngle> = 0
    <J_re> = 0
    <J_im> = 0
    <Sigma> = 0.66700000000000004
    <d_lam> = 0
    <Phi_h> = 0
    <Phi_hx> = 0
    <Phi_hy> = 0
    <LamType> = 0
    <LamFill> = 1
    <NStrands> = 0
    <WireD> = 0
    <BHPoints> = 0
  <EndBlock>
  <BeginBlock>
    <BlockName> = "M250-35A"
    <Mu_x> = 1
    <Mu_y> = 1
    <H_c> = 0
    <H_cAngle> = 0
    <J_re> = 0
    <J_im> = 0
    <Sigma> = 0
    <d_lam> = 0
    <Phi_h> = 0
    <Phi_hx> = 0
    <Phi_hy> = 0
    <LamType> = 0
    <LamFill> = 1
    <NStrands> = 0
    <WireD> = 0
    <BHPoints> = 26
      0	0
      0.10000000000000001	12
      0.20000000000000001	24
      0.29999999999999999	36
      0.40000000000000002	48
      0.5	60
      0.59999999999999998	72
      0.69999999999999996	84
      0.80000000000000004	96
      0.90000000000000002	109
      1	128
      1.1000000000000001	155
      1.2	200
      1.3	295
      1.3999999999999999	578
      1.5	1567
      1.6000000000000001	3673
      1.7	6996
      1.8162	13134.909
      1.8924000000000001	28200.237000000001
      1.998	100790
      2.1000000000000001	180370
      2.2000000000000002	259950
      2.2999999999999998	339530
      2.3999999999999999	419110
      2.5	498690
  <EndBlock>
[CircuitProps]  = 3
  <BeginCircuit>
    <CircuitName> = "U"
    <TotalAmps_re> = 0
    <TotalAmps_im> = 0
    <CircuitType> = 1
  <EndCircuit>
  <BeginCircuit>
    <CircuitName> = "V"
    <TotalAmps_re> = 0
    <TotalAmps_im> = 0
    <CircuitType> = 1
  <EndCircuit>
  <BeginCircuit>
    <CircuitName> = "W"
    <TotalAmps_re> = 0
    <TotalAmps_im> = 0
    <CircuitType> = 1
  <EndCircuit>
[NumPoints] = 109
5.9853529999999999	16.444621000000001	0	2
8.3110890000000008	22.834530999999998	0	2
15.155445	8.75	0	2
21.044416999999999	12.15	0	2
17.234135999999999	-3.038843	0	2
23.930828000000002	-4.2196509999999998	0	2
11.248783	-13.405778	0	2
15.619738999999999	-18.614879999999999	0	2
0	-17.5	0	2
0	-24.300000000000001	0	2
-11.248783	-13.405778	0	2
-15.619738999999999	-18.614879999999999	0	2
-17.234135999999999	-3.038843	0	2
-23.930828000000002	-4.2196509999999998	0	2
-15.155445	8.75	0	2
-21.044416999999999	12.15	0	2
-5.9853529999999999	16.444621000000001	0	2
-8.3110890000000008	22.834530999999998	0	2
7.3711929999999999	15.871847000000001	0	2
10.365603999999999	16.392966999999999	0	2
14.350724	10.015325000000001	0	2
14.343952	13.054736	0	2
13.749355	20.036097999999999	0	2
17.344154	17.019703	0	2
15.848888000000001	7.4204290000000004	0	2
18.477709999999998	5.8948590000000003	0	2
17.431018999999999	-1.5522830000000001	0	2
19.379528000000001	0.780393	0	2
23.411573000000001	6.5106270000000004	0	2
24.226448000000001	1.8892420000000001	0	2
16.910712	-4.5030900000000003	0	2
17.943888999999999	-7.3615190000000004	0	2
12.355147000000001	-12.393561	0	2
15.347206999999999	-11.859104	0	2
22.119254999999999	-10.06124	0	2
19.772917	-14.125216999999999	0	2
10.059825999999999	-14.319563	0	2
9.0139230000000001	-17.173359999999999	0	2
1.4981640000000001	-17.435753999999999	0	2
4.1337570000000001	-18.949594999999999	0	2
10.477093	-21.925339999999998	0	2
6.067418	-23.530329999999999	0	2
-1.4981640000000001	-17.435753999999999	0	2
-4.1337570000000001	-18.949594999999999	0	2
-10.059825999999999	-14.319563	0	2
-9.0139230000000001	-17.173359999999999	0	2
-6.067418	-23.530329999999999	0	2
-10.477093	-21.925339999999998	0	2
-12.355147000000001	-12.393561	0	2
-15.347206999999999	-11.859104	0	2
-16.910712	-4.5030900000000003	0	2
-17.943888999999999	-7.3615190000000004	0	2
-19.772917	-14.125216999999999	0	2
-22.119254999999999	-10.06124	0	2
-17.431018999999999	-1.5522830000000001	0	2
-19.379528000000001	0.780393	0	2
-15.848888000000001	7.4204290000000004	0	2
-18.477709999999998	5.8948590000000003	0	2
-24.226448000000001	1.8892420000000001	0	2
-23.411573000000001	6.5106270000000004	0	2
-14.350724	10.015325000000001	0	2
-14.343952	13.054736	0	2
-7.3711929999999999	15.871847000000001	0	2
-10.365603999999999	16.392966999999999	0	2
-17.344154	17.019703	0	2
-13.749355	20.036097999999999	0	2
-4.5555649999999996	16.896650999999999	0	2
-2.5966819999999999	19.220623	0	2
4.5555649999999996	16.896650999999999	0	2
2.5966819999999999	19.220623	0	2
-2.346339	24.186457000000001	0	2
2.346339	24.186457000000001	0	2
15.859859	2.1130209999999998	0	1
9.7598590000000005	12.678531	0	1
6.9885780000000004	11.078531	0	1
13.088578	0.51302099999999995	0	1
9.7598590000000005	-12.678531	0	1
15.859859	-2.1130209999999998	0	1
13.088578	-0.51302099999999995	0	1
6.9885780000000004	-11.078531	0	1
-6.0999999999999996	-14.791551999999999	0	1
6.0999999999999996	-14.791551999999999	0	1
6.0999999999999996	-11.591552	0	1
-6.0999999999999996	-11.591552	0	1
-15.859859	-2.1130209999999998	0	1
-9.7598590000000005	-12.678531	0	1
-6.9885780000000004	-11.078531	0	1
-13.088578	-0.51302099999999995	0	1
-9.7598590000000005	12.678531	0	1
-15.859859	2.1130209999999998	0	1
-13.088578	0.51302099999999995	0	1
-6.9885780000000004	11.078531	0	1
6.0999999999999996	14.791551999999999	0	1
-6.0999999999999996	14.791551999999999	0	1
-6.0999999999999996	11.591552	0	1
6.0999999999999996	11.591552	0	1
27	0	0	2
-27	0	0	2
17	0	0	1
-17	0	0	1
6	0	0	1
-6	0	0	1
0	0	0	1
0	17.166666666666668	0	0
0	-17.166666666666668	0	0
0	17.333333333333336	0	0
0	-17.333333333333336	0	0
0	22.25	0	0
8.7728166756450001	24.103115723519998	0	0
[NumSegments] = 69
0	1	-1	0	0	2
2	3	-1	0	0	2
4	5	-1	0	0	2
6	7	-1	0	0	2
8	9	-1	0	0	2
10	11	-1	0	0	2
12	13	-1	0	0	2
14	15	-1	0	0	2
16	17	-1	0	0	2
18	19	-1	0	0	2
20	21	-1	0	0	2
19	22	-1	0	0	2
21	23	-1	0	0	2
24	25	-1	0	0	2
26	27	-1	0	0	2
25	28	-1	0	0	2
27	29	-1	0	0	2
30	31	-1	0	0	2
32	33	-1	0	0	2
31	34	-1	0	0	2
33	35	-1	0	0	2
36	37	-1	0	0	2
38	39	-1	0	0	2
37	40	-1	0	0	2
39	41	-1	0	0	2
42	43	-1	0	0	2
44	45	-1	0	0	2
43	46	-1	0	0	2
45	47	-1	0	0	2
48	49	-1	0	0	2
50	51	-1	0	0	2
49	52	-1	0	0	2
51	53	-1	0	0	2
54	55	-1	0	0	2
56	57	-1	0	0	2
55	58	-1	0	0	2
57	59	-1	0	0	2
60	61	-1	0	0	2
62	63	-1	0	0	2
61	64	-1	0	0	2
63	65	-1	0	0	2
66	67	-1	0	0	2
68	69	-1	0	0	2
67	70	-1	0	0	2
69	71	-1	0	0	2
72	73	-1	0	0	1
73	74	-1	0	0	1
75	74	-1	0	0	1
75	72	-1	0	0	1
76	77	-1	0	0	1
77	78	-1	0	0	1
79	78	-1	0	0	1
79	76	-1	0	0	1
80	81	-1	0	0	1
81	82	-1	0	0	1
83	82	-1	0	0	1
83	80	-1	0	0	1
84	85	-1	0	0	1
85	86	-1	0	0	1
87	86	-1	0	0	1
87	84	-1	0	0	1
88	89	-1	0	0	1
89	90	-1	0	0	1
91	90	-1	0	0	1
91	88	-1	0	0	1
92	93	-1	0	0	1
93	94	-1	0	0	1
95	94	-1	0	0	1
95	92	-1	0	0	1
[NumArcSegments] = 55
96	97	180	5	1	0	2	4.4000000000000004
97	96	180	5	1	0	2	4.9000000000000004
98	99	180	5	0	0	1	5
99	98	180	5	0	0	1	5
100	101	180	5	0	0	1	5
101	100	180	5	0	0	1	5
62	60	30.177865999999995	5	0	0	2	5
66	16	4.9110682484847059	5	0	0	2	5
16	62	4.9110657515153004	5	0	0	2	5
60	14	4.9110675491707454	5	0	0	2	5
14	56	4.9110664508292627	5	0	0	2	5
54	12	4.9110676493306258	5	0	0	2	5
12	50	4.9110663506693806	5	0	0	2	5
48	10	4.9110685196584178	5	0	0	2	5
10	44	4.9110654803415965	5	0	0	2	5
42	8	4.9110670000000027	5	0	0	2	5
8	38	4.9110670000000027	5	0	0	2	5
36	6	4.9110654803415965	5	0	0	2	5
6	32	4.9110685196584152	5	0	0	2	5
30	4	4.9110663506693824	5	0	0	2	5
4	26	4.9110676493306222	5	0	0	2	5
24	2	4.9110664508292601	5	0	0	2	5
2	20	4.9110675491707445	5	0	0	2	5
18	0	4.9110657515153013	5	0	0	2	5
0	68	4.9110682484847006	5	0	0	2	5
56	54	30.177865999999995	5	0	0	2	5
50	48	30.177865999999995	5	0	0	2	5
44	42	30.177865999999995	5	0	0	2	5
38	36	30.177865999999995	5	0	0	2	5
32	30	30.177865999999995	5	0	0	2	5
26	24	30.177865999999995	5	0	0	2	5
20	18	30.177865999999995	5	0	0	2	5
68	66	30.177865999999995	5	0	0	2	5
64	15	14.459049826672091	5	0	0	2	5
15	59	14.459050173327897	5	0	0	2	5
58	13	14.459050591714707	5	0	0	2	5
13	53	14.459049408285276	5	0	0	2	5
52	11	14.459050783079062	5	0	0	2	5
11	47	14.459049216920917	5	0	0	2	5
46	9	14.459049999999991	5	0	0	2	5
9	41	14.459049999999991	5	0	0	2	5
40	7	14.459049216920919	5	0	0	2	5
7	35	14.459050783079057	5	0	0	2	5
34	5	14.459049408285276	5	0	0	2	5
5	29	14.459050591714707	5	0	0	2	5
28	3	14.45905017332789	5	0	0	2	5
3	23	14.459049826672098	5	0	0	2	5
22	1	14.459051736135136	5	0	0	2	5
1	71	14.459048263864849	5	0	0	2	5
70	17	14.459048263864853	5	0	0	2	5
17	65	14.459051736135129	5	0	0	2	5
103	104	180	1	2	0	0	0.55000000000000004
105	106	180	1	2	0	0	0.55000000000000004
104	103	180	1	2	0	0	0.55000000000000004
106	105	180	1	2	0	0	0.55000000000000004
[NumHoles] = 1
17.25	0	0
[NumBlockLabels] = 30
-3	0	1	-1	0	0	0	1	0
-32	0	1	-1	0	0	0	1	0
-9.1999999999999993	0	4	-1	0	0	1	1	0
-25.800000000000001	0	4	-1	0	0	2	1	0
0	13.191551642745262	3	-1	0	90	1	1	0
-11.424218838157019	6.595775821372631	3	-1	0	-30	1	1	0
-11.424218838157019	-6.595775821372631	3	-1	0	210	1	1	0
0	-13.191551642745262	3	-1	0	90	1	1	0
11.424218838157019	-6.595775821372631	3	-1	0	330	1	1	0
11.424218838157019	6.595775821372631	3	-1	0	210	1	1	0
-7.82927780206	19.378142561139999	2	-1	3	0	2	30	0
-6.4584551829599999	19.877081190669998	2	-1	1	0	2	-30	0
6.4584551829599999	19.877081190669998	2	-1	1	0	2	30	0
7.82927780206	19.378142561139999	2	-1	2	0	2	-30	0
17.724205210579999	11.07531262178	2	-1	2	0	2	30	0
18.45360469161	9.8119556625199991	2	-1	3	0	2	-30	0
20.696602635829997	-2.9087178108999998	2	-1	3	0	2	30	0
20.443284854629997	-4.3453543377199999	2	-1	1	0	2	-30	0
13.984829673759998	-15.531726852949999	2	-1	1	0	2	30	0
12.867324833770001	-16.469424750239998	2	-1	2	0	2	-30	0
0.72939948102999985	-20.887268284299999	2	-1	2	0	2	30	0
-0.72939948102999985	-20.887268284299999	2	-1	3	0	2	-30	0
-12.867324833770001	-16.469424750239998	2	-1	3	0	2	30	0
-13.984829673759998	-15.531726852949999	2	-1	1	0	2	-30	0
-20.443284854629997	-4.3453543377199999	2	-1	1	0	2	30	0
-20.696602635829997	-2.9087178108999998	2	-1	2	0	2	-30	0
-18.45360469161	9.8119556625199991	2	-1	2	0	2	30	0
-17.724205210579999	11.07531262178	2	-1	3	0	2	-30	0
17.111111111111111	0	1	-1	0	0	0	1	0
17.388888888888893	0	1	-1	0	0	0	1	0
